<!DOCTYPE HTML PUBLIC "-//W3C//DTD HTML 4.01 Transitional//EN">
<html>
  <head>
    <meta content="text/html; charset=ISO-8859-1"
      http-equiv="Content-Type">
  </head>
  <body bgcolor="#ffffff" text="#000000">
    On 05/02/2011 01:27 PM, Robert Walters wrote:
    <blockquote cite="mid:DA4E99DF8B4E413E840F9735A11F6800@ce.ufl.edu"
      type="cite">
      <meta http-equiv="Content-Type" content="text/html;
        charset=ISO-8859-1">
      <meta name="Generator" content="Microsoft Word 11 (filtered
        medium)">
      <style>
<!--
 /* Style Definitions */
 p.MsoNormal, li.MsoNormal, div.MsoNormal
	{margin:0in;
	margin-bottom:.0001pt;
	font-size:12.0pt;
	font-family:"Times New Roman";}
a:link, span.MsoHyperlink
	{color:blue;
	text-decoration:underline;}
a:visited, span.MsoHyperlinkFollowed
	{color:purple;
	text-decoration:underline;}
span.EmailStyle17
	{mso-style-type:personal-compose;
	font-family:Arial;
	color:windowtext;}
@page Section1
	{size:8.5in 11.0in;
	margin:1.0in 1.25in 1.0in 1.25in;}
div.Section1
	{page:Section1;}
-->
</style><!--[if gte mso 9]><xml>
 <o:shapedefaults v:ext="edit" spidmax="1026" />
</xml><![endif]--><!--[if gte mso 9]><xml>
 <o:shapelayout v:ext="edit">
  <o:idmap v:ext="edit" data="1" />
 </o:shapelayout></xml><![endif]-->
      <div class="Section1">
        <p class="MsoNormal"><font size="2" face="Arial"><span
              style="font-size: 10pt; font-family: Arial;">Open-MPI
              Users,<o:p></o:p></span></font></p>
        <p class="MsoNormal"><font size="2" face="Arial"><span
              style="font-size: 10pt; font-family: Arial;"><o:p>&nbsp;</o:p></span></font></p>
        <p class="MsoNormal"><font size="2" face="Arial"><span
              style="font-size: 10pt; font-family: Arial;">I&#8217;ve been
              using OpenMPI for a while now and am very
              pleased with it. I use the OpenMPI system across eight Red
              Hat Linux nodes (8
              cores each) on 1 Gbps Ethernet behind a dedicated switch.
              After working out
              kinks in the beginning, we&#8217;ve been using it periodically
              anywhere from 8
              cores to 64 cores. We use a finite element software named
              LS-DYNA. We do not
              have source code for this program, it is compiled to work
              with OpenMPI 1.4.1 (I
              use 1.4.2) and we cannot make changes or request code to
              see how it performs certain
              functions.<o:p></o:p></span></font></p>
        <p class="MsoNormal"><font size="2" face="Arial"><span
              style="font-size: 10pt; font-family: Arial;"><o:p>&nbsp;</o:p></span></font></p>
        <p class="MsoNormal"><font size="2" face="Arial"><span
              style="font-size: 10pt; font-family: Arial;">From time to
              time, I will be simulating a particular &#8220;job&#8221;
              in LS-DYNA and for some reason, it will quit OpenMPI
              issuing a MPI_ABORT
              command stating that &#8220;connect to address xx.xxx.xxx.xxx
              port xxx:
              Connection refused; trying normal rsh (/usr/bin/rsh).&#8221;
              This error comes
              after running for hours, which means that connections to
              the node it&#8217;s
              citing have already been made previously. The particular
              node it names is
              random and changes from simulation to simulation. We use
              SSH to communicate and
              we have the ports open for node-to-node communications on
              any port. </span></font></p>
      </div>
    </blockquote>
    I am curious what makes you think the connections to the node its
    citing have been made?&nbsp; Are you sure the connection between two
    processes have been made?<br>
    <blockquote cite="mid:DA4E99DF8B4E413E840F9735A11F6800@ce.ufl.edu"
      type="cite">
      <div class="Section1">
        <p class="MsoNormal"><font size="2" face="Arial"><span
              style="font-size: 10pt; font-family: Arial;"><o:p></o:p></span></font></p>
        <p class="MsoNormal"><font size="2" face="Arial"><span
              style="font-size: 10pt; font-family: Arial;"><o:p>&nbsp;</o:p></span></font></p>
        <p class="MsoNormal"><font size="2" face="Arial"><span
              style="font-size: 10pt; font-family: Arial;">Does any user
              have experience with this error where a
              connection is established, and used for several hours, but
              after a seemingly
              random period of time the program dies stating it can&#8217;t
              make a
              connection?</span></font></p>
      </div>
    </blockquote>
    Have you tried running the code giving mpirun the "-mca
    mpi_preconnect_mpi 1" option?&nbsp; This will try (it isn't complete but
    close) to establish all connections at the start of the job.<br>
    <br>
    <div class="moz-signature">-- <br>
      <meta http-equiv="content-type" content="text/html;
        charset=ISO-8859-1">
      <title></title>
      <img src="cid:part1.09090100.04000504@oracle.com" alt="Oracle"><br>
      Terry D. Dontje | Principal Software Engineer<br>
      <font size="2" color="#666666" face="Verdana">Developer Tools
        Engineering | +1.781.442.2631<br>
      </font> <font size="2" color="#ff0000" face="Verdana">Oracle </font><font
        size="2" color="#666666" face="Verdana"><b> - Performance
          Technologies</b></font><br>
      <font size="2" color="#666666" face="Verdana"> 95 Network Drive,
        Burlington, MA 01803<br>
        Email <a href="mailto:terry.dontje@oracle.com">terry.dontje@oracle.com</a><br>
      </font>
      <div class="moz-signature"><br>
        <div class="moz-signature">
          <div class="moz-signature">
            <div class="moz-signature">
              <div class="moz-signature">
                <div class="moz-signature"> </div>
              </div>
            </div>
          </div>
        </div>
        <br>
        <br>
      </div>
    </div>
  </body>
</html>

