<html xmlns:v="urn:schemas-microsoft-com:vml" xmlns:o="urn:schemas-microsoft-com:office:office" xmlns:w="urn:schemas-microsoft-com:office:word" xmlns="http://www.w3.org/TR/REC-html40">

<head>
<META HTTP-EQUIV="Content-Type" CONTENT="text/html; charset=us-ascii">
<meta name=Generator content="Microsoft Word 11 (filtered medium)">
<style>
<!--
 /* Style Definitions */
 p.MsoNormal, li.MsoNormal, div.MsoNormal
	{margin:0in;
	margin-bottom:.0001pt;
	font-size:12.0pt;
	font-family:"Times New Roman";}
a:link, span.MsoHyperlink
	{color:blue;
	text-decoration:underline;}
a:visited, span.MsoHyperlinkFollowed
	{color:purple;
	text-decoration:underline;}
span.EmailStyle17
	{mso-style-type:personal-compose;
	font-family:Arial;
	color:windowtext;}
@page Section1
	{size:8.5in 11.0in;
	margin:1.0in 1.25in 1.0in 1.25in;}
div.Section1
	{page:Section1;}
-->
</style>
<!--[if gte mso 9]><xml>
 <o:shapedefaults v:ext="edit" spidmax="1026" />
</xml><![endif]--><!--[if gte mso 9]><xml>
 <o:shapelayout v:ext="edit">
  <o:idmap v:ext="edit" data="1" />
 </o:shapelayout></xml><![endif]-->
</head>

<body lang=EN-US link=blue vlink=purple>

<div class=Section1>

<p class=MsoNormal><font size=2 face=Arial><span style='font-size:10.0pt;
font-family:Arial'>Open-MPI Users,<o:p></o:p></span></font></p>

<p class=MsoNormal><font size=2 face=Arial><span style='font-size:10.0pt;
font-family:Arial'><o:p>&nbsp;</o:p></span></font></p>

<p class=MsoNormal><font size=2 face=Arial><span style='font-size:10.0pt;
font-family:Arial'>I&#8217;ve been using OpenMPI for a while now and am very
pleased with it. I use the OpenMPI system across eight Red Hat Linux nodes (8
cores each) on 1 Gbps Ethernet behind a dedicated switch. After working out
kinks in the beginning, we&#8217;ve been using it periodically anywhere from 8
cores to 64 cores. We use a finite element software named LS-DYNA. We do not
have source code for this program, it is compiled to work with OpenMPI 1.4.1 (I
use 1.4.2) and we cannot make changes or request code to see how it performs certain
functions.<o:p></o:p></span></font></p>

<p class=MsoNormal><font size=2 face=Arial><span style='font-size:10.0pt;
font-family:Arial'><o:p>&nbsp;</o:p></span></font></p>

<p class=MsoNormal><font size=2 face=Arial><span style='font-size:10.0pt;
font-family:Arial'>From time to time, I will be simulating a particular &#8220;job&#8221;
in LS-DYNA and for some reason, it will quit OpenMPI issuing a MPI_ABORT
command stating that &#8220;connect to address xx.xxx.xxx.xxx port xxx:
Connection refused; trying normal rsh (/usr/bin/rsh).&#8221; This error comes
after running for hours, which means that connections to the node it&#8217;s
citing have already been made previously. The particular node it names is
random and changes from simulation to simulation. We use SSH to communicate and
we have the ports open for node-to-node communications on any port. <o:p></o:p></span></font></p>

<p class=MsoNormal><font size=2 face=Arial><span style='font-size:10.0pt;
font-family:Arial'><o:p>&nbsp;</o:p></span></font></p>

<p class=MsoNormal><font size=2 face=Arial><span style='font-size:10.0pt;
font-family:Arial'>Does any user have experience with this error where a
connection is established, and used for several hours, but after a seemingly
random period of time the program dies stating it can&#8217;t make a
connection?<o:p></o:p></span></font></p>

<p class=MsoNormal><font size=2 face=Arial><span style='font-size:10.0pt;
font-family:Arial'><o:p>&nbsp;</o:p></span></font></p>

<p class=MsoNormal><font size=2 face=Arial><span style='font-size:10.0pt;
font-family:Arial'>Thanks,<o:p></o:p></span></font></p>

<p class=MsoNormal><font size=2 face=Arial><span style='font-size:10.0pt;
font-family:Arial'>Robert Walters <o:p></o:p></span></font></p>

</div>

</body>

</html>

